data/pmd_opendss/case6_unbalanced_switch_good4integer.dss
Clear
New Circuit.4Bus_example
!  define a really stiff source
~ basekv=0.4   pu=1.0  MVAsc1=1e6  MVAsc3=1e6

!Define Linecodes


New linecode.556MCM nphases=3 basefreq=50  ! ohms per 5 mile
~ rmatrix = ( 0.1000 | 0.0400    0.1000 |  0.0400    0.0400    0.1000)
~ xmatrix = ( 0.0583 |  0.0233    0.0583 | 0.0233    0.0233    0.0583)
~ cmatrix = (50.92958178940651  | -0  50.92958178940651 | -0 -0 50.92958178940651  ) ! small capacitance


New linecode.4/0QUAD nphases=3 basefreq=50  ! ohms per 100ft
~ rmatrix = ( 0.1167 | 0.0467    0.1167 | 0.0467    0.0467    0.1167)
~ xmatrix = (0.0667  |  0.0267    0.0667  |  0.0267    0.0267    0.0667 )
~ cmatrix = (50.92958178940651  | -0  50.92958178940651 | -0 -0 50.92958178940651  )  ! small capacitance

!Define lines

New Line.OHLine  bus1=sourcebus.1.2.3  bus2=Primary.1.2.3  linecode = 556MCM   length=1  switch=y ! 5 mile line
New Line.QuadPA    Bus1=Primary.1.2.3  bus2=loadbusA.1.2.3  linecode = 4/0QUAD  length=1  switch=y ! 100 ft
New Line.QuadPB    Bus1=Primary.1.2.3  bus2=loadbusB.1.2.3  linecode = 4/0QUAD  length=1  switch=y ! 100 ft
New Line.QuadBC    Bus1=loadbusB.1.2.3  bus2=loadbusC.1.2.3  linecode = 4/0QUAD  length=1  switch=y ! 100 ft
New Line.QuadAD    Bus1=loadbusA.1.2.3  bus2=loadbusD.1.2.3  linecode = 4/0QUAD  length=1  switch=y ! 100 ft
New Line.QuadPE    Bus1=Primary.1.2.3  bus2=loadbusE.1.2.3  linecode = 4/0QUAD  length=1  switch=y ! 100 ft

!Loads - single phase

New Load.L1 phases=1  loadbusA.1.0   ( 0.4 3 sqrt / )   kW=7  kvar=3  model=1
New Load.L2 phases=1  loadbusA.2.0   ( 0.4 3 sqrt / )   kW=4   kvar=4.5  model=1
New Load.L3 phases=1  loadbusA.3.0   ( 0.4 3 sqrt / )   kW=8   kvar=3  model=1

New Load.L4 phases=1  loadbusB.1.0   ( 0.4 3 sqrt / )   kW=2   kvar=1 model=1


New Load.L9 phases=3  loadbusC.1.2.3.0   ( 0.4 3 sqrt / )   kW=15   kvar=4.5  model=1

New Load.L8 phases=3  loadbusD.1.2.3.0   ( 0.4 3 sqrt / )   kW=12   kvar=6  model=1

New Load.L5 phases=1  loadbusE.1.0   ( 0.4 3 sqrt / )   kW=8   kvar=6  model=1
New Load.L6 phases=1  loadbusE.2.0   ( 0.4 3 sqrt / )   kW=10   kvar=1  model=1
New Load.L7 phases=1  loadbusE.3.0   ( 0.4 3 sqrt / )   kW=4   kvar=3  model=1


Set voltagebases=[0.4]
Set tolerance=0.000001
set defaultbasefreq=50
Calcvoltagebases

Solve
